data_image0
_chemical_formula_structural       B32
_chemical_formula_sum              "B32"
_cell_length_a       4.48811
_cell_length_b       8.59839
_cell_length_c       6.9773
_cell_angle_alpha    59.5092
_cell_angle_beta     77.7352
_cell_angle_gamma    86.6137

_space_group_name_H-M_alt    "P 1"
_space_group_IT_number       1

loop_
  _space_group_symop_operation_xyz
  'x, y, z'

loop_
  _atom_site_type_symbol
  _atom_site_label
  _atom_site_symmetry_multiplicity
  _atom_site_fract_x
  _atom_site_fract_y
  _atom_site_fract_z
  _atom_site_occupancy
  B   B1        1.0  0.13101  0.61019  0.52599  1.0000
  B   B2        1.0  0.79156  0.80466  0.18739  1.0000
  B   B3        1.0  0.84386  0.98019  0.41287  1.0000
  B   B4        1.0  0.44646  0.57190  0.66939  1.0000
  B   B5        1.0  0.97814  0.44347  0.45706  1.0000
  B   B6        1.0  0.17405  0.39329  0.25956  1.0000
  B   B7        1.0  0.66836  0.20891  0.67536  1.0000
  B   B8        1.0  0.45201  0.92284  0.16783  1.0000
  B   B9        1.0  0.69915  0.12399  0.49021  1.0000
  B   B10       1.0  0.09021  0.23665  0.95452  1.0000
  B   B11       1.0  0.25425  0.54019  0.95433  1.0000
  B   B12       1.0  0.38562  0.10159  0.90484  1.0000
  B   B13       1.0  0.27292  0.94654  0.39535  1.0000
  B   B14       1.0  0.52273  0.53844  0.08718  1.0000
  B   B15       1.0  0.76293  0.20253  0.18672  1.0000
  B   B16       1.0  0.07312  0.47055  0.82338  1.0000
  B   B17       1.0  0.73971  0.10920  0.00107  1.0000
  B   B18       1.0  0.17557  0.88217  0.02425  1.0000
  B   B19       1.0  0.47802  0.91855  0.61323  1.0000
  B   B20       1.0  0.35215  0.13516  0.40809  1.0000
  B   B21       1.0  0.75967  0.56786  0.24489  1.0000
  B   B22       1.0  0.47183  0.72866  0.12301  1.0000
  B   B23       1.0  0.99855  0.81602  0.36304  1.0000
  B   B24       1.0  0.87491  0.43337  0.09477  1.0000
  B   B25       1.0  0.35324  0.75397  0.89341  1.0000
  B   B26       1.0  0.03658  0.20171  0.52808  1.0000
  B   B27       1.0  0.58438  0.79049  0.47206  1.0000
  B   B28       1.0  0.34776  0.52500  0.35895  1.0000
  B   B29       1.0  0.08006  0.12112  0.79659  1.0000
  B   B30       1.0  0.80187  0.46750  0.69482  1.0000
  B   B31       1.0  0.58577  0.43103  0.54658  1.0000
  B   B32       1.0  0.38578  0.14971  0.12925  1.0000
